9 
-0.00018669   
  O -0.270090990000000        1.12015730000000      -0.133148820000000
  O  0.273064780000000       -1.11972411000000       0.135284410000000
  C  0.000000000000000E+000  0.000000000000000E+000  0.000000000000000E+000
  H -0.365636550000000       -2.01425644000000        2.89037769000000
  H  -1.53888274000000       -1.00885499000000        3.07514209000000
  O -0.678309970000000       -1.27458498000000        3.42755498000000
  H  0.705974060000000        1.58193502000000        3.06521478000000
  H  0.447809990000000       7.108137000000000E-002   3.39683828000000
  O   1.13790640000000       0.756479400000000        3.32500627000000
